
.subckt aaa a b 
r1  a   b   100
m1  a   b   vss   vss n l=100u w=200u
m2  a   b   vdd   vdd p l=100u w=200u
.ends