
.subckt aaa a b 
r1  a   b   100
m1  a   b   c   d n l=100u w=200u
.ends